/*--------------------------------*- C++ -*----------------------------------*\
| =========                 |                                                 |
| \\      /  F ield         | OpenFOAM: The Open Source CFD Toolbox           |
|  \\    /   O peration     | Version:  4.1                                   |
|   \\  /    A nd           | Web:      www.OpenFOAM.org                      |
|    \\/     M anipulation  |                                                 |
\*---------------------------------------------------------------------------*/
FoamFile
{
    version     2.0;
    format      ascii;
    class       dictionary;
    location    "system";
    object      fvSolution;
}
// * * * * * * * * * * * * * * * * * * * * * * * * * * * * * * * * * * * * * //

solvers
{
    Phi
    {
        solver          GAMG;
        smoother        DIC;

        tolerance       1e-06;
        relTol          0.01;
    }

    p
    {
        solver           GAMG;
        tolerance        1e-8;
        relTol           0.01;

        smoother         DICGaussSeidel;

    }

    pFinal
    {
        $p;
        relTol          0;
    }

    "(U|k|epsilon)"
    {
        solver          smoothSolver;
        smoother        symGaussSeidel;
        tolerance       1e-08;
        relTol          0.1;
    }

    "(U|k|epsilon)Final"
    {
        $U;
        relTol          0;
    }
}

PIMPLE
{
    nNonOrthogonalCorrectors 0;
    nCorrectors          1;
    nOuterCorrectors    100;

    residualControl
    {
        p               5e-4;
        U               1e-5;
    }
}

potentialFlow
{
    nNonOrthogonalCorrectors 3;
}

relaxationFactors
{
    fields
    {
        p      0.8;
        pFinal   1;
    }
    equations
    {
        "U|k|epsilon"     0.6;
        "(U|k|epsilon)Final"   1;
    }
}


// ************************************************************************* //
