/*--------------------------------*- C++ -*----------------------------------*\
| =========                |                                                 |
| \      /  F ield         | OpenFOAM: The Open Source CFD Toolbox           |
|  \    /   O peration     | Version:  4.1                                   |
|   \  /    A nd           | Web:      www.OpenFOAM.org                      |
|    \/     M anipulation  |                                                 |
\*---------------------------------------------------------------------------*/
FoamFile
{
    version     2.0;
    format      ascii;
    class       dictionary;
    location    "constant";
    object      dataAssimData;
}
// * * * * * * * * * * * * * * * * * * * * * * * * * * * * * * * * * * * * * //

// * * * * * * * * * * * * * * * * * * * * * * * * * * * * * * * * * * * * * //
// Physical locations of the nudging points in the grid. The first point
// corresposts to the reference pressure, P0 (or Pref)
// * * * * * * * * * * * * * * * * * * * * * * * * * * * * * * * * * * * * * //
pidPositions
List<vector>
10
(
( 0.0000 0.0000 0.0050 )
( 0.0025 0.0050 0.0050 )
( 0.0050 0.0050 0.0050 )
( 0.0075 0.0050 0.0050 )
( 0.0100 0.0025 0.0050 )
( 0.0100 0.0000 0.0050 )
( 0.0100 -0.0025 0.0050 )
( 0.0025 -0.0050 0.0050 )
( 0.0050 -0.0050 0.0050 )
( 0.0075 -0.0050 0.0050 )
);

// * * * * * * * * * * * * * * * * * * * * * * * * * * * * * * * * * * * * * //
// Physical time at which the data was collected, [s]. The solver will perform
// time-interpolation between values of the pidTime array for the calculations
// * * * * * * * * * * * * * * * * * * * * * * * * * * * * * * * * * * * * * //
pidTime
List<scalar>
3601
(
0.00
0.10
0.20
0.30
0.40
0.50
0.60
0.70
0.80
0.90
1.00
1.10
1.20
1.30
1.40
1.50
1.60
1.70
1.80
1.90
2.00
2.10
2.20
2.30
2.40
2.50
2.60
2.70
2.80
2.90
3.00
3.10
3.20
3.30
3.40
3.50
3.60
3.70
3.80
3.90
4.00
4.10
4.20
4.30
4.40
4.50
4.60
4.70
4.80
4.90
5.00
5.10
5.20
5.30
5.40
5.50
5.60
5.70
5.80
5.90
6.00
6.10
6.20
6.30
6.40
6.50
6.60
6.70
6.80
6.90
7.00
7.10
7.20
7.30
7.40
7.50
7.60
7.70
7.80
7.90
8.00
8.10
8.20
8.30
8.40
8.50
8.60
8.70
8.80
8.90
9.00
9.10
9.20
9.30
9.40
9.50
9.60
9.70
9.80
9.90
10.00
10.10
10.20
10.30
10.40
10.50
10.60
10.70
10.80
10.90
11.00
11.10
11.20
11.30
11.40
11.50
11.60
11.70
11.80
11.90
12.00
12.10
12.20
12.30
12.40
12.50
12.60
12.70
12.80
12.90
13.00
13.10
13.20
13.30
13.40
13.50
13.60
13.70
13.80
13.90
14.00
14.10
14.20
14.30
14.40
14.50
14.60
14.70
14.80
14.90
15.00
15.10
15.20
15.30
15.40
15.50
15.60
15.70
15.80
15.90
16.00
16.10
16.20
16.30
16.40
16.50
16.60
16.70
16.80
16.90
17.00
17.10
17.20
17.30
17.40
17.50
17.60
17.70
17.80
17.90
18.00
18.10
18.20
18.30
18.40
18.50
18.60
18.70
18.80
18.90
19.00
19.10
19.20
19.30
19.40
19.50
19.60
19.70
19.80
19.90
20.00
20.10
20.20
20.30
20.40
20.50
20.60
20.70
20.80
20.90
21.00
21.10
21.20
21.30
21.40
21.50
21.60
21.70
21.80
21.90
22.00
22.10
22.20
22.30
22.40
22.50
22.60
22.70
22.80
22.90
23.00
23.10
23.20
23.30
23.40
23.50
23.60
23.70
23.80
23.90
24.00
24.10
24.20
24.30
24.40
24.50
24.60
24.70
24.80
24.90
25.00
25.10
25.20
25.30
25.40
25.50
25.60
25.70
25.80
25.90
26.00
26.10
26.20
26.30
26.40
26.50
26.60
26.70
26.80
26.90
27.00
27.10
27.20
27.30
27.40
27.50
27.60
27.70
27.80
27.90
28.00
28.10
28.20
28.30
28.40
28.50
28.60
28.70
28.80
28.90
29.00
29.10
29.20
29.30
29.40
29.50
29.60
29.70
29.80
29.90
30.00
30.10
30.20
30.30
30.40
30.50
30.60
30.70
30.80
30.90
31.00
31.10
31.20
31.30
31.40
31.50
31.60
31.70
31.80
31.90
32.00
32.10
32.20
32.30
32.40
32.50
32.60
32.70
32.80
32.90
33.00
33.10
33.20
33.30
33.40
33.50
33.60
33.70
33.80
33.90
34.00
34.10
34.20
34.30
34.40
34.50
34.60
34.70
34.80
34.90
35.00
35.10
35.20
35.30
35.40
35.50
35.60
35.70
35.80
35.90
36.00
36.10
36.20
36.30
36.40
36.50
36.60
36.70
36.80
36.90
37.00
37.10
37.20
37.30
37.40
37.50
37.60
37.70
37.80
37.90
38.00
38.10
38.20
38.30
38.40
38.50
38.60
38.70
38.80
38.90
39.00
39.10
39.20
39.30
39.40
39.50
39.60
39.70
39.80
39.90
40.00
40.10
40.20
40.30
40.40
40.50
40.60
40.70
40.80
40.90
41.00
41.10
41.20
41.30
41.40
41.50
41.60
41.70
41.80
41.90
42.00
42.10
42.20
42.30
42.40
42.50
42.60
42.70
42.80
42.90
43.00
43.10
43.20
43.30
43.40
43.50
43.60
43.70
43.80
43.90
44.00
44.10
44.20
44.30
44.40
44.50
44.60
44.70
44.80
44.90
45.00
45.10
45.20
45.30
45.40
45.50
45.60
45.70
45.80
45.90
46.00
46.10
46.20
46.30
46.40
46.50
46.60
46.70
46.80
46.90
47.00
47.10
47.20
47.30
47.40
47.50
47.60
47.70
47.80
47.90
48.00
48.10
48.20
48.30
48.40
48.50
48.60
48.70
48.80
48.90
49.00
49.10
49.20
49.30
49.40
49.50
49.60
49.70
49.80
49.90
50.00
50.10
50.20
50.30
50.40
50.50
50.60
50.70
50.80
50.90
51.00
51.10
51.20
51.30
51.40
51.50
51.60
51.70
51.80
51.90
52.00
52.10
52.20
52.30
52.40
52.50
52.60
52.70
52.80
52.90
53.00
53.10
53.20
53.30
53.40
53.50
53.60
53.70
53.80
53.90
54.00
54.10
54.20
54.30
54.40
54.50
54.60
54.70
54.80
54.90
55.00
55.10
55.20
55.30
55.40
55.50
55.60
55.70
55.80
55.90
56.00
56.10
56.20
56.30
56.40
56.50
56.60
56.70
56.80
56.90
57.00
57.10
57.20
57.30
57.40
57.50
57.60
57.70
57.80
57.90
58.00
58.10
58.20
58.30
58.40
58.50
58.60
58.70
58.80
58.90
59.00
59.10
59.20
59.30
59.40
59.50
59.60
59.70
59.80
59.90
60.00
60.10
60.20
60.30
60.40
60.50
60.60
60.70
60.80
60.90
61.00
61.10
61.20
61.30
61.40
61.50
61.60
61.70
61.80
61.90
62.00
62.10
62.20
62.30
62.40
62.50
62.60
62.70
62.80
62.90
63.00
63.10
63.20
63.30
63.40
63.50
63.60
63.70
63.80
63.90
64.00
64.10
64.20
64.30
64.40
64.50
64.60
64.70
64.80
64.90
65.00
65.10
65.20
65.30
65.40
65.50
65.60
65.70
65.80
65.90
66.00
66.10
66.20
66.30
66.40
66.50
66.60
66.70
66.80
66.90
67.00
67.10
67.20
67.30
67.40
67.50
67.60
67.70
67.80
67.90
68.00
68.10
68.20
68.30
68.40
68.50
68.60
68.70
68.80
68.90
69.00
69.10
69.20
69.30
69.40
69.50
69.60
69.70
69.80
69.90
70.00
70.10
70.20
70.30
70.40
70.50
70.60
70.70
70.80
70.90
71.00
71.10
71.20
71.30
71.40
71.50
71.60
71.70
71.80
71.90
72.00
72.10
72.20
72.30
72.40
72.50
72.60
72.70
72.80
72.90
73.00
73.10
73.20
73.30
73.40
73.50
73.60
73.70
73.80
73.90
74.00
74.10
74.20
74.30
74.40
74.50
74.60
74.70
74.80
74.90
75.00
75.10
75.20
75.30
75.40
75.50
75.60
75.70
75.80
75.90
76.00
76.10
76.20
76.30
76.40
76.50
76.60
76.70
76.80
76.90
77.00
77.10
77.20
77.30
77.40
77.50
77.60
77.70
77.80
77.90
78.00
78.10
78.20
78.30
78.40
78.50
78.60
78.70
78.80
78.90
79.00
79.10
79.20
79.30
79.40
79.50
79.60
79.70
79.80
79.90
80.00
80.10
80.20
80.30
80.40
80.50
80.60
80.70
80.80
80.90
81.00
81.10
81.20
81.30
81.40
81.50
81.60
81.70
81.80
81.90
82.00
82.10
82.20
82.30
82.40
82.50
82.60
82.70
82.80
82.90
83.00
83.10
83.20
83.30
83.40
83.50
83.60
83.70
83.80
83.90
84.00
84.10
84.20
84.30
84.40
84.50
84.60
84.70
84.80
84.90
85.00
85.10
85.20
85.30
85.40
85.50
85.60
85.70
85.80
85.90
86.00
86.10
86.20
86.30
86.40
86.50
86.60
86.70
86.80
86.90
87.00
87.10
87.20
87.30
87.40
87.50
87.60
87.70
87.80
87.90
88.00
88.10
88.20
88.30
88.40
88.50
88.60
88.70
88.80
88.90
89.00
89.10
89.20
89.30
89.40
89.50
89.60
89.70
89.80
89.90
90.00
90.10
90.20
90.30
90.40
90.50
90.60
90.70
90.80
90.90
91.00
91.10
91.20
91.30
91.40
91.50
91.60
91.70
91.80
91.90
92.00
92.10
92.20
92.30
92.40
92.50
92.60
92.70
92.80
92.90
93.00
93.10
93.20
93.30
93.40
93.50
93.60
93.70
93.80
93.90
94.00
94.10
94.20
94.30
94.40
94.50
94.60
94.70
94.80
94.90
95.00
95.10
95.20
95.30
95.40
95.50
95.60
95.70
95.80
95.90
96.00
96.10
96.20
96.30
96.40
96.50
96.60
96.70
96.80
96.90
97.00
97.10
97.20
97.30
97.40
97.50
97.60
97.70
97.80
97.90
98.00
98.10
98.20
98.30
98.40
98.50
98.60
98.70
98.80
98.90
99.00
99.10
99.20
99.30
99.40
99.50
99.60
99.70
99.80
99.90
100.00
100.10
100.20
100.30
100.40
100.50
100.60
100.70
100.80
100.90
101.00
101.10
101.20
101.30
101.40
101.50
101.60
101.70
101.80
101.90
102.00
102.10
102.20
102.30
102.40
102.50
102.60
102.70
102.80
102.90
103.00
103.10
103.20
103.30
103.40
103.50
103.60
103.70
103.80
103.90
104.00
104.10
104.20
104.30
104.40
104.50
104.60
104.70
104.80
104.90
105.00
105.10
105.20
105.30
105.40
105.50
105.60
105.70
105.80
105.90
106.00
106.10
106.20
106.30
106.40
106.50
106.60
106.70
106.80
106.90
107.00
107.10
107.20
107.30
107.40
107.50
107.60
107.70
107.80
107.90
108.00
108.10
108.20
108.30
108.40
108.50
108.60
108.70
108.80
108.90
109.00
109.10
109.20
109.30
109.40
109.50
109.60
109.70
109.80
109.90
110.00
110.10
110.20
110.30
110.40
110.50
110.60
110.70
110.80
110.90
111.00
111.10
111.20
111.30
111.40
111.50
111.60
111.70
111.80
111.90
112.00
112.10
112.20
112.30
112.40
112.50
112.60
112.70
112.80
112.90
113.00
113.10
113.20
113.30
113.40
113.50
113.60
113.70
113.80
113.90
114.00
114.10
114.20
114.30
114.40
114.50
114.60
114.70
114.80
114.90
115.00
115.10
115.20
115.30
115.40
115.50
115.60
115.70
115.80
115.90
116.00
116.10
116.20
116.30
116.40
116.50
116.60
116.70
116.80
116.90
117.00
117.10
117.20
117.30
117.40
117.50
117.60
117.70
117.80
117.90
118.00
118.10
118.20
118.30
118.40
118.50
118.60
118.70
118.80
118.90
119.00
119.10
119.20
119.30
119.40
119.50
119.60
119.70
119.80
119.90
120.00
120.10
120.20
120.30
120.40
120.50
120.60
120.70
120.80
120.90
121.00
121.10
121.20
121.30
121.40
121.50
121.60
121.70
121.80
121.90
122.00
122.10
122.20
122.30
122.40
122.50
122.60
122.70
122.80
122.90
123.00
123.10
123.20
123.30
123.40
123.50
123.60
123.70
123.80
123.90
124.00
124.10
124.20
124.30
124.40
124.50
124.60
124.70
124.80
124.90
125.00
125.10
125.20
125.30
125.40
125.50
125.60
125.70
125.80
125.90
126.00
126.10
126.20
126.30
126.40
126.50
126.60
126.70
126.80
126.90
127.00
127.10
127.20
127.30
127.40
127.50
127.60
127.70
127.80
127.90
128.00
128.10
128.20
128.30
128.40
128.50
128.60
128.70
128.80
128.90
129.00
129.10
129.20
129.30
129.40
129.50
129.60
129.70
129.80
129.90
130.00
130.10
130.20
130.30
130.40
130.50
130.60
130.70
130.80
130.90
131.00
131.10
131.20
131.30
131.40
131.50
131.60
131.70
131.80
131.90
132.00
132.10
132.20
132.30
132.40
132.50
132.60
132.70
132.80
132.90
133.00
133.10
133.20
133.30
133.40
133.50
133.60
133.70
133.80
133.90
134.00
134.10
134.20
134.30
134.40
134.50
134.60
134.70
134.80
134.90
135.00
135.10
135.20
135.30
135.40
135.50
135.60
135.70
135.80
135.90
136.00
136.10
136.20
136.30
136.40
136.50
136.60
136.70
136.80
136.90
137.00
137.10
137.20
137.30
137.40
137.50
137.60
137.70
137.80
137.90
138.00
138.10
138.20
138.30
138.40
138.50
138.60
138.70
138.80
138.90
139.00
139.10
139.20
139.30
139.40
139.50
139.60
139.70
139.80
139.90
140.00
140.10
140.20
140.30
140.40
140.50
140.60
140.70
140.80
140.90
141.00
141.10
141.20
141.30
141.40
141.50
141.60
141.70
141.80
141.90
142.00
142.10
142.20
142.30
142.40
142.50
142.60
142.70
142.80
142.90
143.00
143.10
143.20
143.30
143.40
143.50
143.60
143.70
143.80
143.90
144.00
144.10
144.20
144.30
144.40
144.50
144.60
144.70
144.80
144.90
145.00
145.10
145.20
145.30
145.40
145.50
145.60
145.70
145.80
145.90
146.00
146.10
146.20
146.30
146.40
146.50
146.60
146.70
146.80
146.90
147.00
147.10
147.20
147.30
147.40
147.50
147.60
147.70
147.80
147.90
148.00
148.10
148.20
148.30
148.40
148.50
148.60
148.70
148.80
148.90
149.00
149.10
149.20
149.30
149.40
149.50
149.60
149.70
149.80
149.90
150.00
150.10
150.20
150.30
150.40
150.50
150.60
150.70
150.80
150.90
151.00
151.10
151.20
151.30
151.40
151.50
151.60
151.70
151.80
151.90
152.00
152.10
152.20
152.30
152.40
152.50
152.60
152.70
152.80
152.90
153.00
153.10
153.20
153.30
153.40
153.50
153.60
153.70
153.80
153.90
154.00
154.10
154.20
154.30
154.40
154.50
154.60
154.70
154.80
154.90
155.00
155.10
155.20
155.30
155.40
155.50
155.60
155.70
155.80
155.90
156.00
156.10
156.20
156.30
156.40
156.50
156.60
156.70
156.80
156.90
157.00
157.10
157.20
157.30
157.40
157.50
157.60
157.70
157.80
157.90
158.00
158.10
158.20
158.30
158.40
158.50
158.60
158.70
158.80
158.90
159.00
159.10
159.20
159.30
159.40
159.50
159.60
159.70
159.80
159.90
160.00
160.10
160.20
160.30
160.40
160.50
160.60
160.70
160.80
160.90
161.00
161.10
161.20
161.30
161.40
161.50
161.60
161.70
161.80
161.90
162.00
162.10
162.20
162.30
162.40
162.50
162.60
162.70
162.80
162.90
163.00
163.10
163.20
163.30
163.40
163.50
163.60
163.70
163.80
163.90
164.00
164.10
164.20
164.30
164.40
164.50
164.60
164.70
164.80
164.90
165.00
165.10
165.20
165.30
165.40
165.50
165.60
165.70
165.80
165.90
166.00
166.10
166.20
166.30
166.40
166.50
166.60
166.70
166.80
166.90
167.00
167.10
167.20
167.30
167.40
167.50
167.60
167.70
167.80
167.90
168.00
168.10
168.20
168.30
168.40
168.50
168.60
168.70
168.80
168.90
169.00
169.10
169.20
169.30
169.40
169.50
169.60
169.70
169.80
169.90
170.00
170.10
170.20
170.30
170.40
170.50
170.60
170.70
170.80
170.90
171.00
171.10
171.20
171.30
171.40
171.50
171.60
171.70
171.80
171.90
172.00
172.10
172.20
172.30
172.40
172.50
172.60
172.70
172.80
172.90
173.00
173.10
173.20
173.30
173.40
173.50
173.60
173.70
173.80
173.90
174.00
174.10
174.20
174.30
174.40
174.50
174.60
174.70
174.80
174.90
175.00
175.10
175.20
175.30
175.40
175.50
175.60
175.70
175.80
175.90
176.00
176.10
176.20
176.30
176.40
176.50
176.60
176.70
176.80
176.90
177.00
177.10
177.20
177.30
177.40
177.50
177.60
177.70
177.80
177.90
178.00
178.10
178.20
178.30
178.40
178.50
178.60
178.70
178.80
178.90
179.00
179.10
179.20
179.30
179.40
179.50
179.60
179.70
179.80
179.90
180.00
180.10
180.20
180.30
180.40
180.50
180.60
180.70
180.80
180.90
181.00
181.10
181.20
181.30
181.40
181.50
181.60
181.70
181.80
181.90
182.00
182.10
182.20
182.30
182.40
182.50
182.60
182.70
182.80
182.90
183.00
183.10
183.20
183.30
183.40
183.50
183.60
183.70
183.80
183.90
184.00
184.10
184.20
184.30
184.40
184.50
184.60
184.70
184.80
184.90
185.00
185.10
185.20
185.30
185.40
185.50
185.60
185.70
185.80
185.90
186.00
186.10
186.20
186.30
186.40
186.50
186.60
186.70
186.80
186.90
187.00
187.10
187.20
187.30
187.40
187.50
187.60
187.70
187.80
187.90
188.00
188.10
188.20
188.30
188.40
188.50
188.60
188.70
188.80
188.90
189.00
189.10
189.20
189.30
189.40
189.50
189.60
189.70
189.80
189.90
190.00
190.10
190.20
190.30
190.40
190.50
190.60
190.70
190.80
190.90
191.00
191.10
191.20
191.30
191.40
191.50
191.60
191.70
191.80
191.90
192.00
192.10
192.20
192.30
192.40
192.50
192.60
192.70
192.80
192.90
193.00
193.10
193.20
193.30
193.40
193.50
193.60
193.70
193.80
193.90
194.00
194.10
194.20
194.30
194.40
194.50
194.60
194.70
194.80
194.90
195.00
195.10
195.20
195.30
195.40
195.50
195.60
195.70
195.80
195.90
196.00
196.10
196.20
196.30
196.40
196.50
196.60
196.70
196.80
196.90
197.00
197.10
197.20
197.30
197.40
197.50
197.60
197.70
197.80
197.90
198.00
198.10
198.20
198.30
198.40
198.50
198.60
198.70
198.80
198.90
199.00
199.10
199.20
199.30
199.40
199.50
199.60
199.70
199.80
199.90
200.00
200.10
200.20
200.30
200.40
200.50
200.60
200.70
200.80
200.90
201.00
201.10
201.20
201.30
201.40
201.50
201.60
201.70
201.80
201.90
202.00
202.10
202.20
202.30
202.40
202.50
202.60
202.70
202.80
202.90
203.00
203.10
203.20
203.30
203.40
203.50
203.60
203.70
203.80
203.90
204.00
204.10
204.20
204.30
204.40
204.50
204.60
204.70
204.80
204.90
205.00
205.10
205.20
205.30
205.40
205.50
205.60
205.70
205.80
205.90
206.00
206.10
206.20
206.30
206.40
206.50
206.60
206.70
206.80
206.90
207.00
207.10
207.20
207.30
207.40
207.50
207.60
207.70
207.80
207.90
208.00
208.10
208.20
208.30
208.40
208.50
208.60
208.70
208.80
208.90
209.00
209.10
209.20
209.30
209.40
209.50
209.60
209.70
209.80
209.90
210.00
210.10
210.20
210.30
210.40
210.50
210.60
210.70
210.80
210.90
211.00
211.10
211.20
211.30
211.40
211.50
211.60
211.70
211.80
211.90
212.00
212.10
212.20
212.30
212.40
212.50
212.60
212.70
212.80
212.90
213.00
213.10
213.20
213.30
213.40
213.50
213.60
213.70
213.80
213.90
214.00
214.10
214.20
214.30
214.40
214.50
214.60
214.70
214.80
214.90
215.00
215.10
215.20
215.30
215.40
215.50
215.60
215.70
215.80
215.90
216.00
216.10
216.20
216.30
216.40
216.50
216.60
216.70
216.80
216.90
217.00
217.10
217.20
217.30
217.40
217.50
217.60
217.70
217.80
217.90
218.00
218.10
218.20
218.30
218.40
218.50
218.60
218.70
218.80
218.90
219.00
219.10
219.20
219.30
219.40
219.50
219.60
219.70
219.80
219.90
220.00
220.10
220.20
220.30
220.40
220.50
220.60
220.70
220.80
220.90
221.00
221.10
221.20
221.30
221.40
221.50
221.60
221.70
221.80
221.90
222.00
222.10
222.20
222.30
222.40
222.50
222.60
222.70
222.80
222.90
223.00
223.10
223.20
223.30
223.40
223.50
223.60
223.70
223.80
223.90
224.00
224.10
224.20
224.30
224.40
224.50
224.60
224.70
224.80
224.90
225.00
225.10
225.20
225.30
225.40
225.50
225.60
225.70
225.80
225.90
226.00
226.10
226.20
226.30
226.40
226.50
226.60
226.70
226.80
226.90
227.00
227.10
227.20
227.30
227.40
227.50
227.60
227.70
227.80
227.90
228.00
228.10
228.20
228.30
228.40
228.50
228.60
228.70
228.80
228.90
229.00
229.10
229.20
229.30
229.40
229.50
229.60
229.70
229.80
229.90
230.00
230.10
230.20
230.30
230.40
230.50
230.60
230.70
230.80
230.90
231.00
231.10
231.20
231.30
231.40
231.50
231.60
231.70
231.80
231.90
232.00
232.10
232.20
232.30
232.40
232.50
232.60
232.70
232.80
232.90
233.00
233.10
233.20
233.30
233.40
233.50
233.60
233.70
233.80
233.90
234.00
234.10
234.20
234.30
234.40
234.50
234.60
234.70
234.80
234.90
235.00
235.10
235.20
235.30
235.40
235.50
235.60
235.70
235.80
235.90
236.00
236.10
236.20
236.30
236.40
236.50
236.60
236.70
236.80
236.90
237.00
237.10
237.20
237.30
237.40
237.50
237.60
237.70
237.80
237.90
238.00
238.10
238.20
238.30
238.40
238.50
238.60
238.70
238.80
238.90
239.00
239.10
239.20
239.30
239.40
239.50
239.60
239.70
239.80
239.90
240.00
240.10
240.20
240.30
240.40
240.50
240.60
240.70
240.80
240.90
241.00
241.10
241.20
241.30
241.40
241.50
241.60
241.70
241.80
241.90
242.00
242.10
242.20
242.30
242.40
242.50
242.60
242.70
242.80
242.90
243.00
243.10
243.20
243.30
243.40
243.50
243.60
243.70
243.80
243.90
244.00
244.10
244.20
244.30
244.40
244.50
244.60
244.70
244.80
244.90
245.00
245.10
245.20
245.30
245.40
245.50
245.60
245.70
245.80
245.90
246.00
246.10
246.20
246.30
246.40
246.50
246.60
246.70
246.80
246.90
247.00
247.10
247.20
247.30
247.40
247.50
247.60
247.70
247.80
247.90
248.00
248.10
248.20
248.30
248.40
248.50
248.60
248.70
248.80
248.90
249.00
249.10
249.20
249.30
249.40
249.50
249.60
249.70
249.80
249.90
250.00
250.10
250.20
250.30
250.40
250.50
250.60
250.70
250.80
250.90
251.00
251.10
251.20
251.30
251.40
251.50
251.60
251.70
251.80
251.90
252.00
252.10
252.20
252.30
252.40
252.50
252.60
252.70
252.80
252.90
253.00
253.10
253.20
253.30
253.40
253.50
253.60
253.70
253.80
253.90
254.00
254.10
254.20
254.30
254.40
254.50
254.60
254.70
254.80
254.90
255.00
255.10
255.20
255.30
255.40
255.50
255.60
255.70
255.80
255.90
256.00
256.10
256.20
256.30
256.40
256.50
256.60
256.70
256.80
256.90
257.00
257.10
257.20
257.30
257.40
257.50
257.60
257.70
257.80
257.90
258.00
258.10
258.20
258.30
258.40
258.50
258.60
258.70
258.80
258.90
259.00
259.10
259.20
259.30
259.40
259.50
259.60
259.70
259.80
259.90
260.00
260.10
260.20
260.30
260.40
260.50
260.60
260.70
260.80
260.90
261.00
261.10
261.20
261.30
261.40
261.50
261.60
261.70
261.80
261.90
262.00
262.10
262.20
262.30
262.40
262.50
262.60
262.70
262.80
262.90
263.00
263.10
263.20
263.30
263.40
263.50
263.60
263.70
263.80
263.90
264.00
264.10
264.20
264.30
264.40
264.50
264.60
264.70
264.80
264.90
265.00
265.10
265.20
265.30
265.40
265.50
265.60
265.70
265.80
265.90
266.00
266.10
266.20
266.30
266.40
266.50
266.60
266.70
266.80
266.90
267.00
267.10
267.20
267.30
267.40
267.50
267.60
267.70
267.80
267.90
268.00
268.10
268.20
268.30
268.40
268.50
268.60
268.70
268.80
268.90
269.00
269.10
269.20
269.30
269.40
269.50
269.60
269.70
269.80
269.90
270.00
270.10
270.20
270.30
270.40
270.50
270.60
270.70
270.80
270.90
271.00
271.10
271.20
271.30
271.40
271.50
271.60
271.70
271.80
271.90
272.00
272.10
272.20
272.30
272.40
272.50
272.60
272.70
272.80
272.90
273.00
273.10
273.20
273.30
273.40
273.50
273.60
273.70
273.80
273.90
274.00
274.10
274.20
274.30
274.40
274.50
274.60
274.70
274.80
274.90
275.00
275.10
275.20
275.30
275.40
275.50
275.60
275.70
275.80
275.90
276.00
276.10
276.20
276.30
276.40
276.50
276.60
276.70
276.80
276.90
277.00
277.10
277.20
277.30
277.40
277.50
277.60
277.70
277.80
277.90
278.00
278.10
278.20
278.30
278.40
278.50
278.60
278.70
278.80
278.90
279.00
279.10
279.20
279.30
279.40
279.50
279.60
279.70
279.80
279.90
280.00
280.10
280.20
280.30
280.40
280.50
280.60
280.70
280.80
280.90
281.00
281.10
281.20
281.30
281.40
281.50
281.60
281.70
281.80
281.90
282.00
282.10
282.20
282.30
282.40
282.50
282.60
282.70
282.80
282.90
283.00
283.10
283.20
283.30
283.40
283.50
283.60
283.70
283.80
283.90
284.00
284.10
284.20
284.30
284.40
284.50
284.60
284.70
284.80
284.90
285.00
285.10
285.20
285.30
285.40
285.50
285.60
285.70
285.80
285.90
286.00
286.10
286.20
286.30
286.40
286.50
286.60
286.70
286.80
286.90
287.00
287.10
287.20
287.30
287.40
287.50
287.60
287.70
287.80
287.90
288.00
288.10
288.20
288.30
288.40
288.50
288.60
288.70
288.80
288.90
289.00
289.10
289.20
289.30
289.40
289.50
289.60
289.70
289.80
289.90
290.00
290.10
290.20
290.30
290.40
290.50
290.60
290.70
290.80
290.90
291.00
291.10
291.20
291.30
291.40
291.50
291.60
291.70
291.80
291.90
292.00
292.10
292.20
292.30
292.40
292.50
292.60
292.70
292.80
292.90
293.00
293.10
293.20
293.30
293.40
293.50
293.60
293.70
293.80
293.90
294.00
294.10
294.20
294.30
294.40
294.50
294.60
294.70
294.80
294.90
295.00
295.10
295.20
295.30
295.40
295.50
295.60
295.70
295.80
295.90
296.00
296.10
296.20
296.30
296.40
296.50
296.60
296.70
296.80
296.90
297.00
297.10
297.20
297.30
297.40
297.50
297.60
297.70
297.80
297.90
298.00
298.10
298.20
298.30
298.40
298.50
298.60
298.70
298.80
298.90
299.00
299.10
299.20
299.30
299.40
299.50
299.60
299.70
299.80
299.90
300.00
300.10
300.20
300.30
300.40
300.50
300.60
300.70
300.80
300.90
301.00
301.10
301.20
301.30
301.40
301.50
301.60
301.70
301.80
301.90
302.00
302.10
302.20
302.30
302.40
302.50
302.60
302.70
302.80
302.90
303.00
303.10
303.20
303.30
303.40
303.50
303.60
303.70
303.80
303.90
304.00
304.10
304.20
304.30
304.40
304.50
304.60
304.70
304.80
304.90
305.00
305.10
305.20
305.30
305.40
305.50
305.60
305.70
305.80
305.90
306.00
306.10
306.20
306.30
306.40
306.50
306.60
306.70
306.80
306.90
307.00
307.10
307.20
307.30
307.40
307.50
307.60
307.70
307.80
307.90
308.00
308.10
308.20
308.30
308.40
308.50
308.60
308.70
308.80
308.90
309.00
309.10
309.20
309.30
309.40
309.50
309.60
309.70
309.80
309.90
310.00
310.10
310.20
310.30
310.40
310.50
310.60
310.70
310.80
310.90
311.00
311.10
311.20
311.30
311.40
311.50
311.60
311.70
311.80
311.90
312.00
312.10
312.20
312.30
312.40
312.50
312.60
312.70
312.80
312.90
313.00
313.10
313.20
313.30
313.40
313.50
313.60
313.70
313.80
313.90
314.00
314.10
314.20
314.30
314.40
314.50
314.60
314.70
314.80
314.90
315.00
315.10
315.20
315.30
315.40
315.50
315.60
315.70
315.80
315.90
316.00
316.10
316.20
316.30
316.40
316.50
316.60
316.70
316.80
316.90
317.00
317.10
317.20
317.30
317.40
317.50
317.60
317.70
317.80
317.90
318.00
318.10
318.20
318.30
318.40
318.50
318.60
318.70
318.80
318.90
319.00
319.10
319.20
319.30
319.40
319.50
319.60
319.70
319.80
319.90
320.00
320.10
320.20
320.30
320.40
320.50
320.60
320.70
320.80
320.90
321.00
321.10
321.20
321.30
321.40
321.50
321.60
321.70
321.80
321.90
322.00
322.10
322.20
322.30
322.40
322.50
322.60
322.70
322.80
322.90
323.00
323.10
323.20
323.30
323.40
323.50
323.60
323.70
323.80
323.90
324.00
324.10
324.20
324.30
324.40
324.50
324.60
324.70
324.80
324.90
325.00
325.10
325.20
325.30
325.40
325.50
325.60
325.70
325.80
325.90
326.00
326.10
326.20
326.30
326.40
326.50
326.60
326.70
326.80
326.90
327.00
327.10
327.20
327.30
327.40
327.50
327.60
327.70
327.80
327.90
328.00
328.10
328.20
328.30
328.40
328.50
328.60
328.70
328.80
328.90
329.00
329.10
329.20
329.30
329.40
329.50
329.60
329.70
329.80
329.90
330.00
330.10
330.20
330.30
330.40
330.50
330.60
330.70
330.80
330.90
331.00
331.10
331.20
331.30
331.40
331.50
331.60
331.70
331.80
331.90
332.00
332.10
332.20
332.30
332.40
332.50
332.60
332.70
332.80
332.90
333.00
333.10
333.20
333.30
333.40
333.50
333.60
333.70
333.80
333.90
334.00
334.10
334.20
334.30
334.40
334.50
334.60
334.70
334.80
334.90
335.00
335.10
335.20
335.30
335.40
335.50
335.60
335.70
335.80
335.90
336.00
336.10
336.20
336.30
336.40
336.50
336.60
336.70
336.80
336.90
337.00
337.10
337.20
337.30
337.40
337.50
337.60
337.70
337.80
337.90
338.00
338.10
338.20
338.30
338.40
338.50
338.60
338.70
338.80
338.90
339.00
339.10
339.20
339.30
339.40
339.50
339.60
339.70
339.80
339.90
340.00
340.10
340.20
340.30
340.40
340.50
340.60
340.70
340.80
340.90
341.00
341.10
341.20
341.30
341.40
341.50
341.60
341.70
341.80
341.90
342.00
342.10
342.20
342.30
342.40
342.50
342.60
342.70
342.80
342.90
343.00
343.10
343.20
343.30
343.40
343.50
343.60
343.70
343.80
343.90
344.00
344.10
344.20
344.30
344.40
344.50
344.60
344.70
344.80
344.90
345.00
345.10
345.20
345.30
345.40
345.50
345.60
345.70
345.80
345.90
346.00
346.10
346.20
346.30
346.40
346.50
346.60
346.70
346.80
346.90
347.00
347.10
347.20
347.30
347.40
347.50
347.60
347.70
347.80
347.90
348.00
348.10
348.20
348.30
348.40
348.50
348.60
348.70
348.80
348.90
349.00
349.10
349.20
349.30
349.40
349.50
349.60
349.70
349.80
349.90
350.00
350.10
350.20
350.30
350.40
350.50
350.60
350.70
350.80
350.90
351.00
351.10
351.20
351.30
351.40
351.50
351.60
351.70
351.80
351.90
352.00
352.10
352.20
352.30
352.40
352.50
352.60
352.70
352.80
352.90
353.00
353.10
353.20
353.30
353.40
353.50
353.60
353.70
353.80
353.90
354.00
354.10
354.20
354.30
354.40
354.50
354.60
354.70
354.80
354.90
355.00
355.10
355.20
355.30
355.40
355.50
355.60
355.70
355.80
355.90
356.00
356.10
356.20
356.30
356.40
356.50
356.60
356.70
356.80
356.90
357.00
357.10
357.20
357.30
357.40
357.50
357.60
357.70
357.80
357.90
358.00
358.10
358.20
358.30
358.40
358.50
358.60
358.70
358.80
358.90
359.00
359.10
359.20
359.30
359.40
359.50
359.60
359.70
359.80
359.90
359.90
);

// * * * * * * * * * * * * * * * * * * * * * * * * * * * * * * * * * * * * * //
// Reference static pressure: length must be equal to number of time steps
// * * * * * * * * * * * * * * * * * * * * * * * * * * * * * * * * * * * * * //
pidP0
List<scalar>
3601
(
0.0601366
0.0601302
0.0601251
0.0601214
0.0601190
0.0601178
0.0601177
0.0601184
0.0601198
0.0601220
0.0601247
0.0601275
0.0601308
0.0601347
0.0601391
0.0601431
0.0601465
0.0601493
0.0601516
0.0601530
0.0601529
0.0601510
0.0601474
0.0601423
0.0601360
0.0601283
0.0601197
0.0601107
0.0601014
0.0600911
0.0600795
0.0600669
0.0600539
0.0600414
0.0600300
0.0600196
0.0600102
0.0600022
0.0599959
0.0599910
0.0599872
0.0599841
0.0599819
0.0599805
0.0599797
0.0599791
0.0599791
0.0599795
0.0599800
0.0599804
0.0599805
0.0599805
0.0599802
0.0599789
0.0599764
0.0599725
0.0599674
0.0599612
0.0599545
0.0599474
0.0599405
0.0599340
0.0599272
0.0599198
0.0599119
0.0599040
0.0598968
0.0598910
0.0598865
0.0598831
0.0598811
0.0598807
0.0598822
0.0598850
0.0598886
0.0598929
0.0598976
0.0599026
0.0599078
0.0599131
0.0599179
0.0599220
0.0599255
0.0599284
0.0599305
0.0599317
0.0599315
0.0599294
0.0599254
0.0599196
0.0599122
0.0599033
0.0598939
0.0598846
0.0598753
0.0598655
0.0598550
0.0598438
0.0598325
0.0598218
0.0598124
0.0598040
0.0597966
0.0597905
0.0597861
0.0597834
0.0597822
0.0597820
0.0597825
0.0597836
0.0597851
0.0597871
0.0597895
0.0597914
0.0597928
0.0597938
0.0597947
0.0597952
0.0597951
0.0597942
0.0597919
0.0597884
0.0597836
0.0597776
0.0597710
0.0597645
0.0597589
0.0597539
0.0597490
0.0597439
0.0597388
0.0597342
0.0597310
0.0597291
0.0597283
0.0597289
0.0597309
0.0597344
0.0597395
0.0597459
0.0597530
0.0597604
0.0597680
0.0597756
0.0597832
0.0597904
0.0597964
0.0598010
0.0598049
0.0598079
0.0598098
0.0598104
0.0598093
0.0598065
0.0598016
0.0597949
0.0597866
0.0597775
0.0597684
0.0597597
0.0597512
0.0597424
0.0597331
0.0597239
0.0597154
0.0597082
0.0597020
0.0596969
0.0596932
0.0596909
0.0596902
0.0596910
0.0596931
0.0596958
0.0596990
0.0597024
0.0597063
0.0597104
0.0597139
0.0597164
0.0597182
0.0597198
0.0597208
0.0597212
0.0597207
0.0597192
0.0597162
0.0597119
0.0597065
0.0597004
0.0596945
0.0596894
0.0596852
0.0596816
0.0596781
0.0596747
0.0596722
0.0596711
0.0596713
0.0596728
0.0596756
0.0596799
0.0596855
0.0596926
0.0597009
0.0597099
0.0597190
0.0597281
0.0597371
0.0597460
0.0597540
0.0597607
0.0597657
0.0597697
0.0597727
0.0597743
0.0597746
0.0597733
0.0597700
0.0597648
0.0597576
0.0597490
0.0597397
0.0597305
0.0597218
0.0597134
0.0597050
0.0596964
0.0596881
0.0596808
0.0596748
0.0596700
0.0596663
0.0596641
0.0596633
0.0596640
0.0596662
0.0596696
0.0596734
0.0596775
0.0596819
0.0596866
0.0596912
0.0596949
0.0596976
0.0596994
0.0597009
0.0597017
0.0597017
0.0597008
0.0596987
0.0596953
0.0596905
0.0596847
0.0596784
0.0596725
0.0596677
0.0596636
0.0596602
0.0596571
0.0596545
0.0596529
0.0596530
0.0596544
0.0596571
0.0596612
0.0596667
0.0596736
0.0596819
0.0596913
0.0597010
0.0597108
0.0597204
0.0597299
0.0597390
0.0597469
0.0597531
0.0597577
0.0597613
0.0597637
0.0597646
0.0597640
0.0597616
0.0597574
0.0597510
0.0597429
0.0597336
0.0597239
0.0597145
0.0597055
0.0596969
0.0596884
0.0596798
0.0596720
0.0596654
0.0596601
0.0596560
0.0596532
0.0596520
0.0596521
0.0596538
0.0596569
0.0596609
0.0596652
0.0596697
0.0596745
0.0596795
0.0596840
0.0596874
0.0596896
0.0596913
0.0596924
0.0596927
0.0596921
0.0596905
0.0596877
0.0596835
0.0596779
0.0596716
0.0596651
0.0596594
0.0596547
0.0596508
0.0596475
0.0596446
0.0596424
0.0596418
0.0596426
0.0596448
0.0596483
0.0596534
0.0596598
0.0596677
0.0596768
0.0596868
0.0596969
0.0597068
0.0597167
0.0597263
0.0597351
0.0597423
0.0597478
0.0597519
0.0597549
0.0597564
0.0597565
0.0597549
0.0597515
0.0597462
0.0597388
0.0597297
0.0597199
0.0597099
0.0597006
0.0596916
0.0596829
0.0596742
0.0596658
0.0596585
0.0596526
0.0596479
0.0596445
0.0596426
0.0596421
0.0596431
0.0596457
0.0596494
0.0596538
0.0596584
0.0596632
0.0596683
0.0596732
0.0596773
0.0596802
0.0596821
0.0596835
0.0596841
0.0596839
0.0596828
0.0596805
0.0596770
0.0596720
0.0596658
0.0596592
0.0596529
0.0596475
0.0596431
0.0596395
0.0596363
0.0596337
0.0596322
0.0596324